
**** 03/18/04 14:26:24 ********* PSpice 9.2 (Mar 2000) ******** ID# 1107000621 
 * Four Bit Adder Test


 ****     CIRCUIT DESCRIPTION


******************************************************************************




.include "adder4bit2.sp"

**** INCLUDING adder4bit2.sp ****
* 4bit ripple carry adder

*.include "tgadder.sp"
.include "mirroradder2.sp"


**** INCLUDING mirroradder2.sp ****
* MirrorAdder                                           
.subckt fulladder A B Ci S Cout Vdd Vss                                                 

* NMOS NETWORK
M1              1               A               0       0       NMOS    w=1u            l=.25u  ad=.375p        as=.375p
M2              1               B               0       0       NMOS    w=1u            l=.25u  ad=.375p        as=.375p
M3              2               B               0       0       NMOS    w=1u            l=.25u  ad=.375p        as=.375p
M4              Cout    Ci              1       0       NMOS    w=1u            l=.25u  ad=.375p        as=.375p
M5              Cout    A               2       0       NMOS    w=1u            l=.25u  ad=.375p        as=.375p
M6              6               A               0       0       NMOS    w=.375u l=.25u  ad=.375p        as=.375p
M7              6               B               0       0       NMOS    w=.375u l=.25u  ad=.375p        as=.375p
M8              6               Ci              0       0       NMOS    w=.375u l=.25u  ad=.375p        as=.375p
M9              7               Cout    6       0       NMOS    w=.375u l=.25u  ad=.375p        as=.375p
M10     9               B               0       0       NMOS    w=.375u l=.25u  ad=.375p        as=.375p
M11     10              A               9       0       NMOS    w=.375u l=.25u  ad=.375p        as=.375p
M12     7               Ci              10      0       NMOS    w=.375u l=.25u  ad=.375p        as=.375p

* PMOS NETWORK
M13     Cout    Ci              4               Vdd     PMOS    w=2u            l=.25u  ad=.375p        as=.375p
M14     Cout    A               5               Vdd     PMOS    w=2u            l=.25u  ad=.375p        as=.375p
M15     4               A               Vdd     Vdd     PMOS    w=2u            l=.25u  ad=.375p        as=.375p
M16     4               B               Vdd     Vdd     PMOS    w=2u            l=.25u  ad=.375p        as=.375p
M17     5               B               Vdd     Vdd     PMOS    w=2u            l=.25u  ad=.375p        as=.375p
M18     7               Cout    8               Vdd     PMOS    w=.375u l=.25u  ad=.375p        as=.375p
M19     8               A               Vdd     Vdd     PMOS    w=.375u l=.25u  ad=.375p        as=.375p
M20     8               B               Vdd     Vdd     PMOS    w=.375u l=.25u  ad=.375p        as=.375p
M21     8               Ci              Vdd     Vdd     PMOS    w=.375u l=.25u  ad=.375p        as=.375p
M22     12      A               Vdd     Vdd     PMOS    w=.375u l=.25u  ad=.375p        as=.375p
M23     11      B               12      Vdd     PMOS    w=.375u l=.25u  ad=.375p        as=.375p
M24     7               Ci              11      Vdd     PMOS    w=.375u l=.25u  ad=.375p        as=.375p

* INVERTERS NETWORK
XB2   7 S               Vdd 0 inv_1x

.ends                                           

**** RESUMING adder4bit2.sp ****
.subckt adder4bit 
+ A0 A1 A2 A3 B0 B1 B2 B3 Ci 
+ S0 S1 S2 S3 C3
+ Vdd GND

* Invert Inputs for 2d version of M_Adder
XA1     A1      A1_not  Vdd     GND     inv_1x
XA3     A3      A3_not  Vdd     GND     inv_1x
XB1     B1              B1_not  Vdd     GND     inv_1x
XB3     B3      B3_not  Vdd     GND     inv_1x

* Inverting output
XS0     S0              S0_not  Vdd     GND     inv_1x
XS2     S2              S2_not  Vdd     GND     inv_1x

* Modified version of bar Inputs
X1 A0           B0              Ci      S0_not  C0      Vdd     GND     fulladder 
X2 A1_not       B1_not  C0      S1              C1      Vdd     GND     fulladder
X3 A2           B2              C1      S2_not  C2      Vdd     GND     fulladder
X4 A3_not       B3_not  C2      S3                      C3      Vdd     GND     fulladder  



.ends

**** RESUMING adder4bit_test.cir ****
.include "inv_1x.sp"

**** INCLUDING inv_1x.sp ****
* INV1X

.subckt inv_1x In Out Vdd GND 
M1 Out In Vdd Vdd pmos W=2U   L=0.25U PD=1U   PS=1U   AS=3P   AD=3P
M2 Out In GND GND nmos W=0.6U L=0.25U PD=0.3U PS=0.3U AS=1.6P AD=1.6P
.ends

**** RESUMING adder4bit_test.cir ****
.include "4bd2a.sp"


**** INCLUDING 4bd2a.sp ****
* 4BIT D2A (4bit D-to-A converter)
* Weight and sum the bits
* (Convert the 4bits to analog)
* You could post process this to 
* round to the nearest integer
* assumes Vdd=2.5V
.SUBCKT 4BD2A I0 I1 I2 I3 OUT
E0 1   0 I0 0 1
E1 2   1 I1 0 2
E2 3   2 I2 0 4
E3 SUM 3 I3 0 8
E4 OUT 0 SUM 0 0.4
.ENDS

.SUBCKT 5BD2A I0 I1 I2 I3 I4 OUT
E0 1   0 I0 0 1
E1 2   1 I1 0 2
E2 3   2 I2 0 4
E3 4   3 I3 0 8
E5 SUM 4 I4 0 16
E4 OUT 0 SUM 0 0.4
.ENDS

.SUBCKT SUMMER A B C OUT 
* Scale C to 1V (Initially 2.5V)
E2 OUT 2 C 0 0.4
E0 1 0 A 0 1
E1 2 1 B 0 1
.ENDS

**** RESUMING adder4bit_test.cir ****
.include "0.25um_PSPICE_BSIM3.txt"


**** INCLUDING 0.25um_PSPICE_BSIM3.txt ****


***************************************************************
*                 NMOS DEVICES MODEL                          *
***************************************************************


.MODEL nmos          NMOS   (                    
+LMIN    = 2.4E-07        LMAX    = '5.1E-07'     
+LEVEL   = 7              TNOM    = 25             
+XW      = 0              TOX     = 5.8E-9           
+XJ      = 1E-07          NCH     = 2.354946E+17   LLN     = 1              
+LWN     = 1              WLN     = 1              WWN     = 1              
+LINT    = 1.76E-08       WINT    = 6.75E-09       MOBMOD  = 1              
+BINUNIT = 2              DWG     = 0              DWB     = 0              
+VTH0    = '0.4321336' LVTH0   = 2.081814E-08   WVTH0   = -5.470342E-11
+PVTH0   = -6.721795E-16  K1      = 0.3281252      LK1     = 9.238362E-08   
+WK1     = 2.878255E-08   PK1     = -2.426481E-14  K2      = 0.0402824      
+LK2     = -3.208392E-08  WK2     = -1.154091E-08  PK2     = 9.192045E-15   
+K3      = 0              DVT0    = 0              DVT1    = 0              
+DVT2    = 0              DVT0W   = 0              DVT1W   = 0              
+DVT2W   = 0              NLX     = 0              W0      = 0              
+K3B     = 0              VSAT    = 7.586954E+04   LVSAT   = 3.094656E-03   
+WVSAT   = -1.747416E-03  PVSAT   = 8.820956E-10   UA      = 8.924498E-10   
+LUA     = -1.511745E-16  WUA     = -3.509821E-17  PUA     = -3.08778E-23   
+UB      = 8.928832E-21   LUB     = -1.655745E-27  WUB     = -2.03282E-27   
+PUB     = 3.4578E-34     UC      = -1.364265E-11  LUC     = 1.170473E-17   
+WUC     = -1.256705E-18  PUC     = -6.249644E-24  RDSW    = 447.8871       
+PRWB    = 0              PRWG    = 0              WR      = 0.99           
+U0      = 0.06005258     LU0     = -6.31976E-09   WU0     = -8.819531E-09  
+PU0     = 3.57209E-15    A0      = -1.468837      LA0     = 6.419548E-07   
+WA0     = 5.512414E-07   PA0     = -9.222928E-14  KETA    = -0.04922795    
+LKETA   = 2.360844E-08   WKETA   = 1.560385E-08   PKETA   = -5.98377E-15   
+A1      = 0.02659908     LA1     = -6.511454E-09  A2      = 1              
+AGS     = -4.01637       LAGS    = 1.090294E-06   WAGS    = 1.162021E-06   
+PAGS    = -3.108579E-13  B0      = 0              B1      = 0              
+VOFF    = -0.1829426     LVOFF   = 9.941631E-09   WVOFF   = 1.568082E-08   
+PVOFF   = -2.832958E-15  NFACTOR = 0.6790636      LNFACTOR= 3.454948E-08   
+WNFACTOR= 1.501016E-07   PNFACTOR= -2.955591E-14  CIT     = 2.218499E-04   
+LCIT    = -1.076934E-10  WCIT    = -3.286884E-10  PCIT    = 1.658928E-16   
+CDSC    = 0              CDSCB   = 0              CDSCD   = 0              
+ETA0    = 1.215578E-04   LETA0   = -1.037758E-11  WETA0   = -3.030225E-11  
+PETA0   = 1.529658E-17   ETAB    = 3.548681E-03   LETAB   = -1.791374E-09  
+WETAB   = -6.897268E-10  PETAB   = 3.481742E-16   DSUB    = 0              
+PCLM    = 3.583838       LPCLM   = -6.874146E-07  WPCLM   = 5.664574E-08   
+PPCLM   = -1.33176E-15   PDIBLC1 = 0              PDIBLC2 = 5.379674E-03   
+LPDIBLC2= 7.808481E-09   WPDIBLC2= 5.516945E-10   PPDIBLC2= -2.784957E-16  
+PDIBLCB = -0.1229374     LPDIBLCB= 4.956215E-08   WPDIBLCB= 3.299946E-08   
+PPDIBLCB= -9.624918E-15  DROUT   = 0              PSCBE1  = 4.472639E+08   
+LPSCBE1 = 28.64041       WPSCBE1 = 15.7154        PPSCBE1 = -7.933138E-06  
+PSCBE2  = 1.842585E-06   LPSCBE2 = 2.871008E-12   WPSCBE2 = 2.579183E-12   
+PPSCBE2 = -1.301972E-18  PVAG    = -2.015254E-03  LPVAG   = 1.017757E-09   
+WPVAG   = 3.07622E-10    PPVAG   = -1.55418E-16   DELTA   = 0.02862256    
+LDELTA  = 1.492454E-08   WDELTA  = -6.71663E-09   PDELTA  = 3.407521E-15   
+ALPHA0  = 0              BETA0   = 30             KT1     = -0.2579945     
+LKT1    = -1.664895E-08  WKT1    = -1.633463E-08  PKT1    = 3.755864E-15   
+KT2     = -0.05347481    LKT2    = 8.244731E-09   WKT2    = 1.13705E-09    
+PKT2    = -1.240924E-15  AT      = -1.132632E+04  LAT     = 6.469047E-03   
+WAT     = 6.829220E-04   PAT     = -4.154249E-10  UTE     = -2.309089      
+LUTE    = 1.662427E-07   WUTE    = 1.244801E-07   PUTE    = -5.627924E-14  
+UA1     = -3.461758E-10  LUA1    = 1.747495E-16   WUA1    = -1.42065E-16   
+PUA1    = 7.171442E-23   UB1     = 0              UC1     = -2.38157E-12   
+LUC1    = -2.895726E-18  WUC1    = -1.990052E-17  PUC1    = 1.004497E-23   
+KT1L    = 0              PRT     = -1E-18         CJ      = 2.024128E-3
+MJ      = 0.4960069      PB      = 0.9173808      CJSW    = 2.751528E-10         
+MJSW    = 0.443145       PBSW    = 0.9173808      CJSWG   = 2.135064E-10        
+MJSWG   = 0.443145       PBSWG   = 0.9173808              
+RS      = 0              RD      = 0
+RSH     = 4.5            
+N       = 1              XTI     = 3              
+CGDO    = '3.11E-10'         CGSO    = '3.11E-10'         CAPMOD  = 0              
+NQSMOD  = 0              XPART   = 1              CF      = 0              
+JS      = 1E-06          
+JSW     = 5E-11           )


***************************************************************
*                 PMOS DEVICES MODEL                          *
***************************************************************
      
.MODEL pmos PMOS (                               
+LEVEL   = 7               LMIN    = 2.4E-7         LMAX    = '5.0E-7'          
+XW      = '0'            TNOM    = 25             TOX     = 5.8e-9          
+XJ      = 1E-7           NCH     = 4.1589E17          
+LLN     = 1              LWN     = 1              WLN     = 1                  
+WWN     = 1              LINT    = 1.2365E-8      WINT    = 7.8E-9             
+MOBMOD  = 1              BINUNIT = 2              DWG     = 0                  
+DWB     = 0              VTH0    = '-0.6236538' LVTH0   = 2.649834E-8
+WVTH0   = 3.214189E-8    PVTH0   = -3.22268E-15   K1      = 0.4198155          
+LK1     = 5.770498E-8    WK1     = 5.577151E-8    PK1     = -2.81684E-14       
+K2      = 0.0429467      LK2     = -2.296405E-8   WK2     = -1.355302E-8       
+PK2     = 6.848271E-15   K3      = 0              DVT0    = 0                  
+DVT1    = 0              DVT2    = 0              DVT0W   = 0                  
+DVT1W   = 0              DVT2W   = 0              NLX     = 0                  
+W0      = 0              K3B     = 0              VSAT    = 1.443912E5         
+LVSAT   = -7.688012E-4   WVSAT   = -6.083648E-3   PVSAT   = 2.186471E-10       
+UA      = 1.846811E-9    LUA     = -3.27694E-16   WUA     = -2.82106E-16       
+PUA     = 7.180233E-23   UB      = -7.84535E-19   LUB     = 4.772849E-25       
+WUB     = 2.599205E-25   PUB     = -1.46530E-31   UC      = -1.75560E-10       
+LUC     = 3.360832E-17   WUC     = 1.504425E-17   PUC     = -1.30556E-23       
+RDSW    = 1.03E3         PRWB    = 0              PRWG    = 0                  
+WR      = 1              U0      = 0.0136443      LU0     = -7.22084E-10       
+WU0     = -1.088554E-9   PU0     = 2.730854E-16   A0      = 0.1071803          
+LA0     = 4.64252E-7     WA0     = 5.383179E-7    PA0     = -1.32033E-13       
+KETA    = -4.943762E-3   LKETA   = -3.565304E-9   WKETA   = -5.226247E-9       
+PKETA   = 2.640665E-15   A1      = 0              A2      = 0.4                
+AGS     = 0.1664005      LAGS    = 1.19106E-7     WAGS    = 5.29237E-8         
+PAGS    = -2.67304E-14   B0      = 0              B1      = 0                  
+VOFF    = -0.0592623     LVOFF   = -1.96686E-8    WVOFF   = -1.486398E-8       
+PVOFF   = 7.510321E-15   NFACTOR = 0.8588103      LNFACTOR= -1.158881E-7       
+WNFACTOR= 1.210664E-8    PNFACTOR= -6.11712E-15   CIT     = 6.439495E-5        
+LCIT    = 2.916437E-10   WCIT    = -3.11284E-11   PCIT    = 1.572825E-17       
+CDSC    = 0              CDSCB   = 0              CDSCD   = 0                  
+ETA0    = -3.819468E-3   LETA0   = 2.155422E-9    WETA0   = 8.235612E-10       
+PETA0   = -4.16037E-16   ETAB    = 1.334637E-3    LETAB   = -7.93631E-10       
+WETAB   = 5.284657E-11   PETAB   = -2.68353E-17   DSUB    = 0                  
+PCLM    = 0.1098002      LPCLM   = 6.874263E-7    WPCLM   = 6.724724E-7        
+PPCLM   = -1.97766E-13   PDIBLC1 = 0              PDIBLC2 = 5.801323E-3        
+LPDIBLC2= -1.81964E-9    WPDIBLC2= -5.853396E-9   PPDIBLC2= 2.957545E-15       
+PDIBLCB = 0.1921199      DROUT   = 0              PSCBE1  = 7.19E8             
+PSCBE2  = 1E-20          PVAG    = 0              DELTA   = 0.01               
+ALPHA0  = 0              BETA0   = 30             KT1     = -0.3248987         
+LKT1    = -1.160393E-8   WKT1    = 4.153356E-8    PKT1    = -4.62347E-15       
+KT2     = -0.0367632     AT      = 1E4            UTE     = -1.04              
+UA1     = 3.992421E-10   UB1     = -9.23294E-19   LUB1    = -5.28718E-26       
+WUB1    = -6.13069E-26   PUB1    = 1.503674E-32   UC1     = -1.00699E-12       
+KT1L    = 0              PRT     = 0              CJ      = 1.931092E-3                
+MJ      = 0.4812153      PB      = 0.9134669      CJSW    = 2.232277E-10              
+MJSW    = 0.3237595      PBSW    = 0.9134669      CJSWG   = 1.607088E-10           
+MJSWG   = 0.3237595      PBSWG   = 0.9134669               
+RS      = 0                  
+RD      = 0              RSH     = 3.5           
+CGDO    = 2.68E-10           CGSO    = 2.68E-10                         
+CAPMOD  = 0              NQSMOD  = 0              XPART   = 1              
+CF      = 0              N       = 1              XTI     = 3
+JS      = 3E-7           
+JSW     = 5E-12           )  



**** RESUMING adder4bit_test.cir ****
xadder A0_B A1_B A2_B A3_B 
+ B0_B B1_B B2_B B3_B 
+ CI_B S0 S1 S2 S3 COUT
+ VDD VSS adder4bit

vdd Vdd 0 2.5V
vss VSS 0 0

* Functional Test for Average power measurement
VA0 A0 0 pulse 0 2.5 1n   10p 10p 10n  20n
VB0 B0 0 pulse 0 2.5 161n 10p 10p 10n  20n
VA1 A1 0 pulse 0 2.5 1n   10p 10p 20n  40n
VB1 B1 0 pulse 0 2.5 161n 10p 10p 20n  40n
VA2 A2 0 pulse 0 2.5 1n   10p 10p 40n  80n
VB2 B2 0 pulse 0 2.5 161n 10p 10p 40n  80n
VA3 A3 0 pulse 0 2.5 1n   10p 10p 80n  160n
VB3 B3 0 pulse 0 2.5 161n 10p 10p 80n  160n
VCI CI 0 pulse 0 2.5 1n   10p 10p 160n 320n

XA0 A0 A0_B Vdd VSS inv_1x
XB0 B0 B0_B Vdd VSS inv_1x
XA1 A1 A1_B Vdd VSS inv_1x
XB1 B1 B1_B Vdd VSS inv_1x
XA2 A2 A2_B Vdd VSS inv_1x
XB2 B2 B2_B Vdd VSS inv_1x
XA3 A3 A3_B Vdd VSS inv_1x
XB3 B3 B3_B Vdd VSS inv_1x
XCI CI CI_B Vdd VSS inv_1x

C1 S0 0 100F
C2 S1 0 100F
C3 S2 0 100F
C4 S3 0 100F
C5 COUT 0 100F

XD2AA A0_B A1_B A2_B A3_B AIN 4BD2A
XD2AB B0_B B1_B B2_B B3_B BIN 4BD2A
XSUMM AIN BIN CI_B SUM_IN SUMMER
XD2AS S0 S1 S2 S3 COUT SUM 5BD2A

.tran 10n 480n
.print tran V([SUM]) V([SUM_IN])
.probe
.options DEFW=0.375U DEFL=0.25U DEFAD=0.11P DEFAS=0.11P 
.end

ERROR -- Node S0 is floating
ERROR -- Node S2 is floating