
**** 02/24/03 01:49:22 ************** PSpice Lite (Mar 2000) *****************

 ** Profile: "SCHEMATIC1-Bias"  [ C:\DOCUMENTS AND SETTINGS\JAVIER\MY DOCUMENTS\EE10\PSpice 1\problem 2-SCHEMATIC1-Bias.sim ] 


 ****     CIRCUIT DESCRIPTION


******************************************************************************




** Creating circuit file "problem 2-SCHEMATIC1-Bias.sim.cir" 
** WARNING: THIS AUTOMATICALLY GENERATED FILE MAY BE OVERWRITTEN BY SUBSEQUENT SIMULATIONS

*Libraries: 
* Local Libraries :
* From [PSPICE NETLIST] section of C:\Program Files\OrcadLite\PSpice\PSpice.ini file:
.lib "nom.lib" 

*Analysis directives: 
.PROBE V(*) I(*) W(*) D(*) NOISE(*) 
.INC ".\problem 2-SCHEMATIC1.net" 



**** INCLUDING "problem 2-SCHEMATIC1.net" ****
* source PROBLEM 2
E_U1         N00449 0 VALUE {LIMIT(V(N00420,N00391)*1E6,-12V,+12V)}
R_R1         N00648 N00391  4.7k  
R_R2         N00275 N00420  0k  
----------------------------$
ERROR -- Value may not be 0
R_R3         0 N00420  220k  
R_R4         N00391 N00449  470  
R_R5         0 N00449  47k  
V_V1         N00648 0 2Vdc
V_V2         N00275 0 3Vdc

**** RESUMING "problem 2-SCHEMATIC1-Bias.sim.cir" ****
.END
