
**** 03/03/03 10:51:35 ************** PSpice Lite (Mar 2000) *****************

 ** Profile: "SCHEMATIC1-Bias"  [ C:\DOCUMENTS AND SETTINGS\JAVIER\MY DOCUMENTS\EE10\PSpice 1\project 3-SCHEMATIC1-Bias.sim ] 


 ****     CIRCUIT DESCRIPTION


******************************************************************************




** Creating circuit file "project 3-SCHEMATIC1-Bias.sim.cir" 
** WARNING: THIS AUTOMATICALLY GENERATED FILE MAY BE OVERWRITTEN BY SUBSEQUENT SIMULATIONS

*Libraries: 
* Local Libraries :
* From [PSPICE NETLIST] section of C:\Program Files\OrcadLite\PSpice\PSpice.ini file:
.lib "nom.lib" 

*Analysis directives: 
.PROBE V(*) I(*) W(*) D(*) NOISE(*) 
.INC ".\project 3-SCHEMATIC1.net" 



**** INCLUDING "project 3-SCHEMATIC1.net" ****
* source PROJECT 3
R_R1         0 N00326  8k  
R_R2         N00326 N00603  320k  
V_V2         0 0 1Vdc
R_Rout         N001261 N00603  2k  
R_Rin         N00326 0  400k  
E_U1         N001261 0 VALUE {LIMIT(V(0,N00326)*5E5,-15V,+15V)}

**** RESUMING "project 3-SCHEMATIC1-Bias.sim.cir" ****
.END

ERROR -- Voltage source and/or inductor loop involving V_V2
You may break the loop by adding a series resistance