Release 4.1i - Par E.30
Copyright (c) 1995-2001 Xilinx, Inc.  All rights reserved.

Fri Jul 23 12:59:47 2004

Xilinx PAD Specification File
*****************************

Input file:       par_temp.ncd
Output file:      simtest.ncd
Part type:        xcv50
Speed grade:      -6
Package:          pq240

Pinout by Signal Name:
--------------------------|-----------------|--------|-----------|-------------|----------|----------|------|----------|-----------|---------|-----------|
       Signal Name        |    Pin Name     | Pin    | Direction | IO Standard |IO Bank # |Drive (mA)| Slew | Pullup   | IOB Delay | Voltage |Constraint |
                          |                 | Number |           |             |          |          | Rate | Pulldown |           |         |           |
--------------------------|-----------------|--------|-----------|-------------|----------|----------|------|----------|-----------|---------|-----------|
 clk                      |                 | P89    | INPUT     | LVTTL       | 5        | 12*      | SLOW*| NONE**   | ***       |         |           |
 din<0>                   | IRDY            | P28    | OUTPUT    | LVTTL       | 7        | 12       | SLOW | NONE**   | ***       |         |           |
 din<10>                  | VREF            | P171   | OUTPUT    | LVTTL       | 2        | 12       | SLOW | NONE**   | ***       |         |           |
 din<11>                  |                 | P170   | OUTPUT    | LVTTL       | 2        | 12       | SLOW | NONE**   | ***       |         |           |
 din<12>                  |                 | P168   | OUTPUT    | LVTTL       | 2        | 12       | SLOW | NONE**   | ***       |         |           |
 din<13>                  | D2              | P163   | OUTPUT    | LVTTL       | 2        | 12       | SLOW | NONE**   | ***       |         |           |
 din<14>                  |                 | P161   | OUTPUT    | LVTTL       | 2        | 12       | SLOW | NONE**   | ***       |         |           |
 din<15>                  |                 | P175   | OUTPUT    | LVTTL       | 2        | 12       | SLOW | NONE**   | ***       |         |           |
 din<1>                   |                 | P39    | OUTPUT    | LVTTL       | 6        | 12       | SLOW | NONE**   | ***       |         |           |
 din<2>                   |                 | P42    | OUTPUT    | LVTTL       | 6        | 12       | SLOW | NONE**   | ***       |         |           |
 din<3>                   |                 | P140   | OUTPUT    | LVTTL       | 3        | 12       | SLOW | NONE**   | ***       |         |           |
 din<4>                   | D4              | P145   | OUTPUT    | LVTTL       | 3        | 12       | SLOW | NONE**   | ***       |         |           |
 din<5>                   |                 | P127   | OUTPUT    | LVTTL       | 3        | 12       | SLOW | NONE**   | ***       |         |           |
 din<6>                   |                 | P126   | OUTPUT    | LVTTL       | 3        | 12       | SLOW | NONE**   | ***       |         |           |
 din<7>                   |                 | P128   | OUTPUT    | LVTTL       | 3        | 12       | SLOW | NONE**   | ***       |         |           |
 din<8>                   |                 | P118   | OUTPUT    | LVTTL       | 4        | 12       | SLOW | NONE**   | ***       |         |           |
 din<9>                   | CS              | P184   | OUTPUT    | LVTTL       | 1        | 12       | SLOW | NONE**   | ***       |         |           |
 dout<0>                  |                 | P35    | INPUT     | LVTTL       | 6        | 12*      | SLOW*| NONE**   | NONE      |         |           |
 dout<10>                 |                 | P24    | INPUT     | LVTTL       | 7        | 12*      | SLOW*| NONE**   | NONE      |         |           |
 dout<11>                 | VREF            | P23    | INPUT     | LVTTL       | 7        | 12*      | SLOW*| NONE**   | NONE      |         |           |
 dout<12>                 |                 | P64    | INPUT     | LVTTL       | 5        | 12*      | SLOW*| NONE**   | NONE      |         |           |
 dout<13>                 |                 | P56    | INPUT     | LVTTL       | 6        | 12*      | SLOW*| NONE**   | NONE      |         |           |
 dout<14>                 |                 | P55    | INPUT     | LVTTL       | 6        | 12*      | SLOW*| NONE**   | NONE      |         |           |
 dout<15>                 |                 | P63    | INPUT     | LVTTL       | 5        | 12*      | SLOW*| NONE**   | NONE      |         |           |
 dout<1>                  |                 | P13    | INPUT     | LVTTL       | 7        | 12*      | SLOW*| NONE**   | NONE      |         |           |
 dout<2>                  |                 | P26    | INPUT     | LVTTL       | 7        | 12*      | SLOW*| NONE**   | NONE      |         |           |
 dout<3>                  |                 | P18    | INPUT     | LVTTL       | 7        | 12*      | SLOW*| NONE**   | NONE      |         |           |
 dout<4>                  |                 | P12    | INPUT     | LVTTL       | 7        | 12*      | SLOW*| NONE**   | NONE      |         |           |
 dout<5>                  |                 | P17    | INPUT     | LVTTL       | 7        | 12*      | SLOW*| NONE**   | NONE      |         |           |
 dout<6>                  |                 | P11    | INPUT     | LVTTL       | 7        | 12*      | SLOW*| NONE**   | NONE      |         |           |
 dout<7>                  |                 | P21    | INPUT     | LVTTL       | 7        | 12*      | SLOW*| NONE**   | NONE      |         |           |
 dout<8>                  |                 | P20    | INPUT     | LVTTL       | 7        | 12*      | SLOW*| NONE**   | NONE      |         |           |
 dout<9>                  |                 | P19    | INPUT     | LVTTL       | 7        | 12*      | SLOW*| NONE**   | NONE      |         |           |
 finish                   |                 | P71    | OUTPUT    | LVTTL       | 5        | 12       | SLOW | NONE**   | ***       |         |           |
 memrd                    | TRDY            | P31    | OUTPUT    | LVTTL       | 6        | 12       | SLOW | NONE**   | ***       |         |           |
 memwr                    |                 | P234   | OUTPUT    | LVTTL       | 0        | 12       | SLOW | NONE**   | ***       |         |           |
 rdaddr<0>                |                 | P173   | OUTPUT    | LVTTL       | 2        | 12       | SLOW | NONE**   | ***       |         |           |
 rdaddr<10>               |                 | P169   | OUTPUT    | LVTTL       | 2        | 12       | SLOW | NONE**   | ***       |         |           |
 rdaddr<11>               |                 | P162   | OUTPUT    | LVTTL       | 2        | 12       | SLOW | NONE**   | ***       |         |           |
 rdaddr<12>               |                 | P132   | OUTPUT    | LVTTL       | 3        | 12       | SLOW | NONE**   | ***       |         |           |
 rdaddr<13>               |                 | P153   | OUTPUT    | LVTTL       | 2        | 12       | SLOW | NONE**   | ***       |         |           |
 rdaddr<14>               | INIT            | P123   | OUTPUT    | LVTTL       | 3        | 12       | SLOW | NONE**   | ***       |         |           |
 rdaddr<15>               |                 | P142   | OUTPUT    | LVTTL       | 3        | 12       | SLOW | NONE**   | ***       |         |           |
 rdaddr<16>               |                 | P133   | OUTPUT    | LVTTL       | 3        | 12       | SLOW | NONE**   | ***       |         |           |
 rdaddr<17>               | D5              | P138   | OUTPUT    | LVTTL       | 3        | 12       | SLOW | NONE**   | ***       |         |           |
 rdaddr<1>                |                 | P33    | OUTPUT    | LVTTL       | 6        | 12       | SLOW | NONE**   | ***       |         |           |
 rdaddr<2>                | D1              | P167   | OUTPUT    | LVTTL       | 2        | 12       | SLOW | NONE**   | ***       |         |           |
 rdaddr<3>                |                 | P160   | OUTPUT    | LVTTL       | 2        | 12       | SLOW | NONE**   | ***       |         |           |
 rdaddr<4>                | D3              | P156   | OUTPUT    | LVTTL       | 2        | 12       | SLOW | NONE**   | ***       |         |           |
 rdaddr<5>                | IRDY            | P152   | OUTPUT    | LVTTL       | 2        | 12       | SLOW | NONE**   | ***       |         |           |
 rdaddr<6>                |                 | P146   | OUTPUT    | LVTTL       | 3        | 12       | SLOW | NONE**   | ***       |         |           |
 rdaddr<7>                |                 | P159   | OUTPUT    | LVTTL       | 2        | 12       | SLOW | NONE**   | ***       |         |           |
 rdaddr<8>                | DIN_D0          | P177   | OUTPUT    | LVTTL       | 2        | 12       | SLOW | NONE**   | ***       |         |           |
 rdaddr<9>                |                 | P147   | OUTPUT    | LVTTL       | 3        | 12       | SLOW | NONE**   | ***       |         |           |
 rddone                   |                 | P25    | INPUT     | LVTTL       | 7        | 12*      | SLOW*| NONE**   | NONE      |         |           |
 reset                    |                 | P68    | INPUT     | LVTTL       | 5        | 12*      | SLOW*| NONE**   | NONE      |         |           |
 resetl                   |                 | P82    | OUTPUT    | LVTTL       | 5        | 12       | SLOW | NONE**   | ***       |         |           |
 state1                   |                 | P81    | OUTPUT    | LVTTL       | 5        | 12       | SLOW | NONE**   | ***       |         |           |
 state2                   |                 | P41    | OUTPUT    | LVTTL       | 6        | 12       | SLOW | NONE**   | ***       |         |           |
 state3                   |                 | P27    | OUTPUT    | LVTTL       | 7        | 12       | SLOW | NONE**   | ***       |         |           |
 state4                   | VREF            | P36    | OUTPUT    | LVTTL       | 6        | 12       | SLOW | NONE**   | ***       |         |           |
 wraddr<0>                | D6              | P134   | OUTPUT    | LVTTL       | 3        | 12       | SLOW | NONE**   | ***       |         |           |
 wraddr<10>               | VREF            | P157   | OUTPUT    | LVTTL       | 2        | 12       | SLOW | NONE**   | ***       |         |           |
 wraddr<11>               |                 | P139   | OUTPUT    | LVTTL       | 3        | 12       | SLOW | NONE**   | ***       |         |           |
 wraddr<12>               |                 | P155   | OUTPUT    | LVTTL       | 2        | 12       | SLOW | NONE**   | ***       |         |           |
 wraddr<13>               |                 | P154   | OUTPUT    | LVTTL       | 2        | 12       | SLOW | NONE**   | ***       |         |           |
 wraddr<14>               |                 | P125   | OUTPUT    | LVTTL       | 3        | 12       | SLOW | NONE**   | ***       |         |           |
 wraddr<15>               | TRDY            | P149   | OUTPUT    | LVTTL       | 3        | 12       | SLOW | NONE**   | ***       |         |           |
 wraddr<16>               |                 | P176   | OUTPUT    | LVTTL       | 2        | 12       | SLOW | NONE**   | ***       |         |           |
 wraddr<17>               |                 | P174   | OUTPUT    | LVTTL       | 2        | 12       | SLOW | NONE**   | ***       |         |           |
 wraddr<1>                |                 | P40    | OUTPUT    | LVTTL       | 6        | 12       | SLOW | NONE**   | ***       |         |           |
 wraddr<2>                |                 | P141   | OUTPUT    | LVTTL       | 3        | 12       | SLOW | NONE**   | ***       |         |           |
 wraddr<3>                |                 | P131   | OUTPUT    | LVTTL       | 3        | 12       | SLOW | NONE**   | ***       |         |           |
 wraddr<4>                |                 | P38    | OUTPUT    | LVTTL       | 6        | 12       | SLOW | NONE**   | ***       |         |           |
 wraddr<5>                | D7              | P124   | OUTPUT    | LVTTL       | 3        | 12       | SLOW | NONE**   | ***       |         |           |
 wraddr<6>                | VREF            | P144   | OUTPUT    | LVTTL       | 3        | 12       | SLOW | NONE**   | ***       |         |           |
 wraddr<7>                | VREF            | P130   | OUTPUT    | LVTTL       | 3        | 12       | SLOW | NONE**   | ***       |         |           |
 wraddr<8>                | WRITE           | P185   | OUTPUT    | LVTTL       | 1        | 12       | SLOW | NONE**   | ***       |         |           |
 wraddr<9>                | DOUT_BUSY       | P178   | OUTPUT    | LVTTL       | 2        | 12       | SLOW | NONE**   | ***       |         |           |
 wrdone                   |                 | P34    | INPUT     | LVTTL       | 6        | 12*      | SLOW*| NONE**   | NONE      |         |           |
--------------------------|-----------------|--------|-----------|-------------|----------|----------|------|----------|-----------|---------|-----------|

Pinout by Pin Number:
--------|--------------------------|-----------------|-----------|-------------|----------|----------|------|----------|-----------|---------|-----------|
 Pin    |       Signal Name        |    Pin Name     | Direction | IO Standard |IO Bank # |Drive (mA)| Slew | Pullup   | IOB Delay | Voltage |Constraint |
 Number |                          |                 |           |             |          |          | Rate | Pulldown |           |         |           |
--------|--------------------------|-----------------|-----------|-------------|----------|----------|------|----------|-----------|---------|-----------|
 P1     |                          | GND             |           | LVTTL*      |          | 12*      | SLOW*| NONE**   | ***       |         |           |
 P2     |                          | TMS             |           | LVTTL*      |          | 12*      | SLOW*| NONE**   | ***       |         |           |
 P3     |                          |                 | UNUSED    | LVTTL*      | 7        | 12*      | SLOW*| NONE**   | ***       |         |           |
 P4     |                          |                 | UNUSED    | LVTTL*      | 7        | 12*      | SLOW*| NONE**   | ***       |         |           |
 P5     |                          |                 | UNUSED    | LVTTL*      | 7        | 12*      | SLOW*| NONE**   | ***       |         |           |
 P6     |                          |                 | UNUSED    | LVTTL*      | 7        | 12*      | SLOW*| NONE**   | ***       |         |           |
 P7     |                          |                 | UNUSED    | LVTTL*      | 7        | 12*      | SLOW*| NONE**   | ***       |         |           |
 P8     |                          | GND             |           | LVTTL*      |          | 12*      | SLOW*| NONE**   | ***       |         |           |
 P9     |                          | VREF            |           | LVTTL*      | 7        | 12*      | SLOW*| NONE**   | ***       |         |           |
 P10    |                          |                 | UNUSED    | LVTTL*      | 7        | 12*      | SLOW*| NONE**   | ***       |         |           |
 P11    | dout<6>                  |                 | INPUT     | LVTTL       | 7        | 12*      | SLOW*| NONE**   | NONE      |         |           |
 P12    | dout<4>                  |                 | INPUT     | LVTTL       | 7        | 12*      | SLOW*| NONE**   | NONE      |         |           |
 P13    | dout<1>                  |                 | INPUT     | LVTTL       | 7        | 12*      | SLOW*| NONE**   | NONE      |         |           |
 P14    |                          | GND             |           | LVTTL*      |          | 12*      | SLOW*| NONE**   | ***       |         |           |
 P15    |                          | VCCO            |           | LVTTL*      |          | 12*      | SLOW*| NONE**   | ***       |         |           |
 P16    |                          | VCCINT          |           | LVTTL*      |          | 12*      | SLOW*| NONE**   | ***       | 2.5     |           |
 P17    | dout<5>                  |                 | INPUT     | LVTTL       | 7        | 12*      | SLOW*| NONE**   | NONE      |         |           |
 P18    | dout<3>                  |                 | INPUT     | LVTTL       | 7        | 12*      | SLOW*| NONE**   | NONE      |         |           |
 P19    | dout<9>                  |                 | INPUT     | LVTTL       | 7        | 12*      | SLOW*| NONE**   | NONE      |         |           |
 P20    | dout<8>                  |                 | INPUT     | LVTTL       | 7        | 12*      | SLOW*| NONE**   | NONE      |         |           |
 P21    | dout<7>                  |                 | INPUT     | LVTTL       | 7        | 12*      | SLOW*| NONE**   | NONE      |         |           |
 P22    |                          | GND             |           | LVTTL*      |          | 12*      | SLOW*| NONE**   | ***       |         |           |
 P23    | dout<11>                 | VREF            | INPUT     | LVTTL       | 7        | 12*      | SLOW*| NONE**   | NONE      |         |           |
 P24    | dout<10>                 |                 | INPUT     | LVTTL       | 7        | 12*      | SLOW*| NONE**   | NONE      |         |           |
 P25    | rddone                   |                 | INPUT     | LVTTL       | 7        | 12*      | SLOW*| NONE**   | NONE      |         |           |
 P26    | dout<2>                  |                 | INPUT     | LVTTL       | 7        | 12*      | SLOW*| NONE**   | NONE      |         |           |
 P27    | state3                   |                 | OUTPUT    | LVTTL       | 7        | 12       | SLOW | NONE**   | ***       |         |           |
 P28    | din<0>                   | IRDY            | OUTPUT    | LVTTL       | 7        | 12       | SLOW | NONE**   | ***       |         |           |
 P29    |                          | GND             |           | LVTTL*      |          | 12*      | SLOW*| NONE**   | ***       |         |           |
 P30    |                          | VCCO            |           | LVTTL*      |          | 12*      | SLOW*| NONE**   | ***       |         |           |
 P31    | memrd                    | TRDY            | OUTPUT    | LVTTL       | 6        | 12       | SLOW | NONE**   | ***       |         |           |
 P32    |                          | VCCINT          |           | LVTTL*      |          | 12*      | SLOW*| NONE**   | ***       | 2.5     |           |
 P33    | rdaddr<1>                |                 | OUTPUT    | LVTTL       | 6        | 12       | SLOW | NONE**   | ***       |         |           |
 P34    | wrdone                   |                 | INPUT     | LVTTL       | 6        | 12*      | SLOW*| NONE**   | NONE      |         |           |
 P35    | dout<0>                  |                 | INPUT     | LVTTL       | 6        | 12*      | SLOW*| NONE**   | NONE      |         |           |
 P36    | state4                   | VREF            | OUTPUT    | LVTTL       | 6        | 12       | SLOW | NONE**   | ***       |         |           |
 P37    |                          | GND             |           | LVTTL*      |          | 12*      | SLOW*| NONE**   | ***       |         |           |
 P38    | wraddr<4>                |                 | OUTPUT    | LVTTL       | 6        | 12       | SLOW | NONE**   | ***       |         |           |
 P39    | din<1>                   |                 | OUTPUT    | LVTTL       | 6        | 12       | SLOW | NONE**   | ***       |         |           |
 P40    | wraddr<1>                |                 | OUTPUT    | LVTTL       | 6        | 12       | SLOW | NONE**   | ***       |         |           |
 P41    | state2                   |                 | OUTPUT    | LVTTL       | 6        | 12       | SLOW | NONE**   | ***       |         |           |
 P42    | din<2>                   |                 | OUTPUT    | LVTTL       | 6        | 12       | SLOW | NONE**   | ***       |         |           |
 P43    |                          | VCCINT          |           | LVTTL*      |          | 12*      | SLOW*| NONE**   | ***       | 2.5     |           |
 P44    |                          | VCCO            |           | LVTTL*      |          | 12*      | SLOW*| NONE**   | ***       |         |           |
 P45    |                          | GND             |           | LVTTL*      |          | 12*      | SLOW*| NONE**   | ***       |         |           |
 P46    |                          |                 | UNUSED    | LVTTL*      | 6        | 12*      | SLOW*| NONE**   | ***       |         |           |
 P47    |                          |                 | UNUSED    | LVTTL*      | 6        | 12*      | SLOW*| NONE**   | ***       |         |           |
 P48    |                          |                 | UNUSED    | LVTTL*      | 6        | 12*      | SLOW*| NONE**   | ***       |         |           |
 P49    |                          |                 | UNUSED    | LVTTL*      | 6        | 12*      | SLOW*| NONE**   | ***       |         |           |
 P50    |                          | VREF            |           | LVTTL*      | 6        | 12*      | SLOW*| NONE**   | ***       |         |           |
 P51    |                          | GND             |           | LVTTL*      |          | 12*      | SLOW*| NONE**   | ***       |         |           |
 P52    |                          |                 | UNUSED    | LVTTL*      | 6        | 12*      | SLOW*| NONE**   | ***       |         |           |
 P53    |                          |                 | UNUSED    | LVTTL*      | 6        | 12*      | SLOW*| NONE**   | ***       |         |           |
 P54    |                          |                 | UNUSED    | LVTTL*      | 6        | 12*      | SLOW*| NONE**   | ***       |         |           |
 P55    | dout<14>                 |                 | INPUT     | LVTTL       | 6        | 12*      | SLOW*| NONE**   | NONE      |         |           |
 P56    | dout<13>                 |                 | INPUT     | LVTTL       | 6        | 12*      | SLOW*| NONE**   | NONE      |         |           |
 P57    |                          |                 | UNUSED    | LVTTL*      | 6        | 12*      | SLOW*| NONE**   | ***       |         |           |
 P58    |                          | M1              |           | LVTTL*      |          | 12*      | SLOW*| NONE**   | ***       |         |           |
 P59    |                          | GND             |           | LVTTL*      |          | 12*      | SLOW*| NONE**   | ***       |         |           |
 P60    |                          | M0              |           | LVTTL*      |          | 12*      | SLOW*| NONE**   | ***       |         |           |
 P61    |                          | VCCO            |           | LVTTL*      |          | 12*      | SLOW*| NONE**   | ***       |         |           |
 P62    |                          | M2              |           | LVTTL*      |          | 12*      | SLOW*| NONE**   | ***       |         |           |
 P63    | dout<15>                 |                 | INPUT     | LVTTL       | 5        | 12*      | SLOW*| NONE**   | NONE      |         |           |
 P64    | dout<12>                 |                 | INPUT     | LVTTL       | 5        | 12*      | SLOW*| NONE**   | NONE      |         |           |
 P65    |                          |                 | UNUSED    | LVTTL*      | 5        | 12*      | SLOW*| NONE**   | ***       |         |           |
 P66    |                          |                 | UNUSED    | LVTTL*      | 5        | 12*      | SLOW*| NONE**   | ***       |         |           |
 P67    |                          |                 | UNUSED    | LVTTL*      | 5        | 12*      | SLOW*| NONE**   | ***       |         |           |
 P68    | reset                    |                 | INPUT     | LVTTL       | 5        | 12*      | SLOW*| NONE**   | NONE      |         |           |
 P69    |                          | GND             |           | LVTTL*      |          | 12*      | SLOW*| NONE**   | ***       |         |           |
 P70    |                          | VREF            |           | LVTTL*      | 5        | 12*      | SLOW*| NONE**   | ***       |         |           |
 P71    | finish                   |                 | OUTPUT    | LVTTL       | 5        | 12       | SLOW | NONE**   | ***       |         |           |
 P72    |                          |                 | UNUSED    | LVTTL*      | 5        | 12*      | SLOW*| NONE**   | ***       |         |           |
 P73    |                          |                 | UNUSED    | LVTTL*      | 5        | 12*      | SLOW*| NONE**   | ***       |         |           |
 P74    |                          |                 | UNUSED    | LVTTL*      | 5        | 12*      | SLOW*| NONE**   | ***       |         |           |
 P75    |                          | GND             |           | LVTTL*      |          | 12*      | SLOW*| NONE**   | ***       |         |           |
 P76    |                          | VCCO            |           | LVTTL*      |          | 12*      | SLOW*| NONE**   | ***       |         |           |
 P77    |                          | VCCINT          |           | LVTTL*      |          | 12*      | SLOW*| NONE**   | ***       | 2.5     |           |
 P78    |                          |                 | UNUSED    | LVTTL*      | 5        | 12*      | SLOW*| NONE**   | ***       |         |           |
 P79    |                          |                 | UNUSED    | LVTTL*      | 5        | 12*      | SLOW*| NONE**   | ***       |         |           |
 P80    |                          |                 | UNUSED    | LVTTL*      | 5        | 12*      | SLOW*| NONE**   | ***       |         |           |
 P81    | state1                   |                 | OUTPUT    | LVTTL       | 5        | 12       | SLOW | NONE**   | ***       |         |           |
 P82    | resetl                   |                 | OUTPUT    | LVTTL       | 5        | 12       | SLOW | NONE**   | ***       |         |           |
 P83    |                          | GND             |           | LVTTL*      |          | 12*      | SLOW*| NONE**   | ***       |         |           |
 P84    |                          | VREF            |           | LVTTL*      | 5        | 12*      | SLOW*| NONE**   | ***       |         |           |
 P85    |                          |                 | UNUSED    | LVTTL*      | 5        | 12*      | SLOW*| NONE**   | ***       |         |           |
 P86    |                          |                 | UNUSED    | LVTTL*      | 5        | 12*      | SLOW*| NONE**   | ***       |         |           |
 P87    |                          |                 | UNUSED    | LVTTL*      | 5        | 12*      | SLOW*| NONE**   | ***       |         |           |
 P88    |                          | VCCINT          |           | LVTTL*      |          | 12*      | SLOW*| NONE**   | ***       | 2.5     |           |
 P89    | clk                      |                 | INPUT     | LVTTL       | 5        | 12*      | SLOW*| NONE**   | ***       |         |           |
 P90    |                          | VCCO            |           | LVTTL*      |          | 12*      | SLOW*| NONE**   | ***       |         |           |
 P91    |                          | GND             |           | LVTTL*      |          | 12*      | SLOW*| NONE**   | ***       |         |           |
 P92    |                          |                 | UNUSED    | LVTTL*      | 4        | 12*      | SLOW*| NONE**   | ***       |         |           |
 P93    |                          |                 | UNUSED    | LVTTL*      | 4        | 12*      | SLOW*| NONE**   | ***       |         |           |
 P94    |                          |                 | UNUSED    | LVTTL*      | 4        | 12*      | SLOW*| NONE**   | ***       |         |           |
 P95    |                          |                 | UNUSED    | LVTTL*      | 4        | 12*      | SLOW*| NONE**   | ***       |         |           |
 P96    |                          |                 | UNUSED    | LVTTL*      | 4        | 12*      | SLOW*| NONE**   | ***       |         |           |
 P97    |                          | VREF            |           | LVTTL*      | 4        | 12*      | SLOW*| NONE**   | ***       |         |           |
 P98    |                          | GND             |           | LVTTL*      |          | 12*      | SLOW*| NONE**   | ***       |         |           |
 P99    |                          |                 | UNUSED    | LVTTL*      | 4        | 12*      | SLOW*| NONE**   | ***       |         |           |
 P100   |                          |                 | UNUSED    | LVTTL*      | 4        | 12*      | SLOW*| NONE**   | ***       |         |           |
 P101   |                          |                 | UNUSED    | LVTTL*      | 4        | 12*      | SLOW*| NONE**   | ***       |         |           |
 P102   |                          |                 | UNUSED    | LVTTL*      | 4        | 12*      | SLOW*| NONE**   | ***       |         |           |
 P103   |                          |                 | UNUSED    | LVTTL*      | 4        | 12*      | SLOW*| NONE**   | ***       |         |           |
 P104   |                          | VCCINT          |           | LVTTL*      |          | 12*      | SLOW*| NONE**   | ***       | 2.5     |           |
 P105   |                          | VCCO            |           | LVTTL*      |          | 12*      | SLOW*| NONE**   | ***       |         |           |
 P106   |                          | GND             |           | LVTTL*      |          | 12*      | SLOW*| NONE**   | ***       |         |           |
 P107   |                          |                 | UNUSED    | LVTTL*      | 4        | 12*      | SLOW*| NONE**   | ***       |         |           |
 P108   |                          |                 | UNUSED    | LVTTL*      | 4        | 12*      | SLOW*| NONE**   | ***       |         |           |
 P109   |                          |                 | UNUSED    | LVTTL*      | 4        | 12*      | SLOW*| NONE**   | ***       |         |           |
 P110   |                          |                 | UNUSED    | LVTTL*      | 4        | 12*      | SLOW*| NONE**   | ***       |         |           |
 P111   |                          | VREF            |           | LVTTL*      | 4        | 12*      | SLOW*| NONE**   | ***       |         |           |
 P112   |                          | GND             |           | LVTTL*      |          | 12*      | SLOW*| NONE**   | ***       |         |           |
 P113   |                          |                 | UNUSED    | LVTTL*      | 4        | 12*      | SLOW*| NONE**   | ***       |         |           |
 P114   |                          |                 | UNUSED    | LVTTL*      | 4        | 12*      | SLOW*| NONE**   | ***       |         |           |
 P115   |                          |                 | UNUSED    | LVTTL*      | 4        | 12*      | SLOW*| NONE**   | ***       |         |           |
 P116   |                          |                 | UNUSED    | LVTTL*      | 4        | 12*      | SLOW*| NONE**   | ***       |         |           |
 P117   |                          |                 | UNUSED    | LVTTL*      | 4        | 12*      | SLOW*| NONE**   | ***       |         |           |
 P118   | din<8>                   |                 | OUTPUT    | LVTTL       | 4        | 12       | SLOW | NONE**   | ***       |         |           |
 P119   |                          | GND             |           | LVTTL*      |          | 12*      | SLOW*| NONE**   | ***       |         |           |
 P120   |                          | DONE            |           | LVTTL*      |          | 12*      | SLOW*| NONE**   | ***       |         |           |
 P121   |                          | VCCO            |           | LVTTL*      |          | 12*      | SLOW*| NONE**   | ***       |         |           |
 P122   |                          | PROGRAM         |           | LVTTL*      |          | 12*      | SLOW*| NONE**   | ***       |         |           |
 P123   | rdaddr<14>               | INIT            | OUTPUT    | LVTTL       | 3        | 12       | SLOW | NONE**   | ***       |         |           |
 P124   | wraddr<5>                | D7              | OUTPUT    | LVTTL       | 3        | 12       | SLOW | NONE**   | ***       |         |           |
 P125   | wraddr<14>               |                 | OUTPUT    | LVTTL       | 3        | 12       | SLOW | NONE**   | ***       |         |           |
 P126   | din<6>                   |                 | OUTPUT    | LVTTL       | 3        | 12       | SLOW | NONE**   | ***       |         |           |
 P127   | din<5>                   |                 | OUTPUT    | LVTTL       | 3        | 12       | SLOW | NONE**   | ***       |         |           |
 P128   | din<7>                   |                 | OUTPUT    | LVTTL       | 3        | 12       | SLOW | NONE**   | ***       |         |           |
 P129   |                          | GND             |           | LVTTL*      |          | 12*      | SLOW*| NONE**   | ***       |         |           |
 P130   | wraddr<7>                | VREF            | OUTPUT    | LVTTL       | 3        | 12       | SLOW | NONE**   | ***       |         |           |
 P131   | wraddr<3>                |                 | OUTPUT    | LVTTL       | 3        | 12       | SLOW | NONE**   | ***       |         |           |
 P132   | rdaddr<12>               |                 | OUTPUT    | LVTTL       | 3        | 12       | SLOW | NONE**   | ***       |         |           |
 P133   | rdaddr<16>               |                 | OUTPUT    | LVTTL       | 3        | 12       | SLOW | NONE**   | ***       |         |           |
 P134   | wraddr<0>                | D6              | OUTPUT    | LVTTL       | 3        | 12       | SLOW | NONE**   | ***       |         |           |
 P135   |                          | GND             |           | LVTTL*      |          | 12*      | SLOW*| NONE**   | ***       |         |           |
 P136   |                          | VCCO            |           | LVTTL*      |          | 12*      | SLOW*| NONE**   | ***       |         |           |
 P137   |                          | VCCINT          |           | LVTTL*      |          | 12*      | SLOW*| NONE**   | ***       | 2.5     |           |
 P138   | rdaddr<17>               | D5              | OUTPUT    | LVTTL       | 3        | 12       | SLOW | NONE**   | ***       |         |           |
 P139   | wraddr<11>               |                 | OUTPUT    | LVTTL       | 3        | 12       | SLOW | NONE**   | ***       |         |           |
 P140   | din<3>                   |                 | OUTPUT    | LVTTL       | 3        | 12       | SLOW | NONE**   | ***       |         |           |
 P141   | wraddr<2>                |                 | OUTPUT    | LVTTL       | 3        | 12       | SLOW | NONE**   | ***       |         |           |
 P142   | rdaddr<15>               |                 | OUTPUT    | LVTTL       | 3        | 12       | SLOW | NONE**   | ***       |         |           |
 P143   |                          | GND             |           | LVTTL*      |          | 12*      | SLOW*| NONE**   | ***       |         |           |
 P144   | wraddr<6>                | VREF            | OUTPUT    | LVTTL       | 3        | 12       | SLOW | NONE**   | ***       |         |           |
 P145   | din<4>                   | D4              | OUTPUT    | LVTTL       | 3        | 12       | SLOW | NONE**   | ***       |         |           |
 P146   | rdaddr<6>                |                 | OUTPUT    | LVTTL       | 3        | 12       | SLOW | NONE**   | ***       |         |           |
 P147   | rdaddr<9>                |                 | OUTPUT    | LVTTL       | 3        | 12       | SLOW | NONE**   | ***       |         |           |
 P148   |                          | VCCINT          |           | LVTTL*      |          | 12*      | SLOW*| NONE**   | ***       | 2.5     |           |
 P149   | wraddr<15>               | TRDY            | OUTPUT    | LVTTL       | 3        | 12       | SLOW | NONE**   | ***       |         |           |
 P150   |                          | VCCO            |           | LVTTL*      |          | 12*      | SLOW*| NONE**   | ***       |         |           |
 P151   |                          | GND             |           | LVTTL*      |          | 12*      | SLOW*| NONE**   | ***       |         |           |
 P152   | rdaddr<5>                | IRDY            | OUTPUT    | LVTTL       | 2        | 12       | SLOW | NONE**   | ***       |         |           |
 P153   | rdaddr<13>               |                 | OUTPUT    | LVTTL       | 2        | 12       | SLOW | NONE**   | ***       |         |           |
 P154   | wraddr<13>               |                 | OUTPUT    | LVTTL       | 2        | 12       | SLOW | NONE**   | ***       |         |           |
 P155   | wraddr<12>               |                 | OUTPUT    | LVTTL       | 2        | 12       | SLOW | NONE**   | ***       |         |           |
 P156   | rdaddr<4>                | D3              | OUTPUT    | LVTTL       | 2        | 12       | SLOW | NONE**   | ***       |         |           |
 P157   | wraddr<10>               | VREF            | OUTPUT    | LVTTL       | 2        | 12       | SLOW | NONE**   | ***       |         |           |
 P158   |                          | GND             |           | LVTTL*      |          | 12*      | SLOW*| NONE**   | ***       |         |           |
 P159   | rdaddr<7>                |                 | OUTPUT    | LVTTL       | 2        | 12       | SLOW | NONE**   | ***       |         |           |
 P160   | rdaddr<3>                |                 | OUTPUT    | LVTTL       | 2        | 12       | SLOW | NONE**   | ***       |         |           |
 P161   | din<14>                  |                 | OUTPUT    | LVTTL       | 2        | 12       | SLOW | NONE**   | ***       |         |           |
 P162   | rdaddr<11>               |                 | OUTPUT    | LVTTL       | 2        | 12       | SLOW | NONE**   | ***       |         |           |
 P163   | din<13>                  | D2              | OUTPUT    | LVTTL       | 2        | 12       | SLOW | NONE**   | ***       |         |           |
 P164   |                          | VCCINT          |           | LVTTL*      |          | 12*      | SLOW*| NONE**   | ***       | 2.5     |           |
 P165   |                          | VCCO            |           | LVTTL*      |          | 12*      | SLOW*| NONE**   | ***       |         |           |
 P166   |                          | GND             |           | LVTTL*      |          | 12*      | SLOW*| NONE**   | ***       |         |           |
 P167   | rdaddr<2>                | D1              | OUTPUT    | LVTTL       | 2        | 12       | SLOW | NONE**   | ***       |         |           |
 P168   | din<12>                  |                 | OUTPUT    | LVTTL       | 2        | 12       | SLOW | NONE**   | ***       |         |           |
 P169   | rdaddr<10>               |                 | OUTPUT    | LVTTL       | 2        | 12       | SLOW | NONE**   | ***       |         |           |
 P170   | din<11>                  |                 | OUTPUT    | LVTTL       | 2        | 12       | SLOW | NONE**   | ***       |         |           |
 P171   | din<10>                  | VREF            | OUTPUT    | LVTTL       | 2        | 12       | SLOW | NONE**   | ***       |         |           |
 P172   |                          | GND             |           | LVTTL*      |          | 12*      | SLOW*| NONE**   | ***       |         |           |
 P173   | rdaddr<0>                |                 | OUTPUT    | LVTTL       | 2        | 12       | SLOW | NONE**   | ***       |         |           |
 P174   | wraddr<17>               |                 | OUTPUT    | LVTTL       | 2        | 12       | SLOW | NONE**   | ***       |         |           |
 P175   | din<15>                  |                 | OUTPUT    | LVTTL       | 2        | 12       | SLOW | NONE**   | ***       |         |           |
 P176   | wraddr<16>               |                 | OUTPUT    | LVTTL       | 2        | 12       | SLOW | NONE**   | ***       |         |           |
 P177   | rdaddr<8>                | DIN_D0          | OUTPUT    | LVTTL       | 2        | 12       | SLOW | NONE**   | ***       |         |           |
 P178   | wraddr<9>                | DOUT_BUSY       | OUTPUT    | LVTTL       | 2        | 12       | SLOW | NONE**   | ***       |         |           |
 P179   |                          | CCLK            |           | LVTTL*      |          | 12*      | SLOW*| NONE**   | ***       |         |           |
 P180   |                          | VCCO            |           | LVTTL*      |          | 12*      | SLOW*| NONE**   | ***       |         |           |
 P181   |                          | TDO             |           | LVTTL*      |          | 12*      | SLOW*| NONE**   | ***       |         |           |
 P182   |                          | GND             |           | LVTTL*      |          | 12*      | SLOW*| NONE**   | ***       |         |           |
 P183   |                          | TDI             |           | LVTTL*      |          | 12*      | SLOW*| NONE**   | ***       |         |           |
 P184   | din<9>                   | CS              | OUTPUT    | LVTTL       | 1        | 12       | SLOW | NONE**   | ***       |         |           |
 P185   | wraddr<8>                | WRITE           | OUTPUT    | LVTTL       | 1        | 12       | SLOW | NONE**   | ***       |         |           |
 P186   |                          |                 | UNUSED    | LVTTL*      | 1        | 12*      | SLOW*| NONE**   | ***       |         |           |
 P187   |                          |                 | UNUSED    | LVTTL*      | 1        | 12*      | SLOW*| NONE**   | ***       |         |           |
 P188   |                          |                 | UNUSED    | LVTTL*      | 1        | 12*      | SLOW*| NONE**   | ***       |         |           |
 P189   |                          |                 | UNUSED    | LVTTL*      | 1        | 12*      | SLOW*| NONE**   | ***       |         |           |
 P190   |                          | GND             |           | LVTTL*      |          | 12*      | SLOW*| NONE**   | ***       |         |           |
 P191   |                          | VREF            |           | LVTTL*      | 1        | 12*      | SLOW*| NONE**   | ***       |         |           |
 P192   |                          |                 | UNUSED    | LVTTL*      | 1        | 12*      | SLOW*| NONE**   | ***       |         |           |
 P193   |                          |                 | UNUSED    | LVTTL*      | 1        | 12*      | SLOW*| NONE**   | ***       |         |           |
 P194   |                          |                 | UNUSED    | LVTTL*      | 1        | 12*      | SLOW*| NONE**   | ***       |         |           |
 P195   |                          |                 | UNUSED    | LVTTL*      | 1        | 12*      | SLOW*| NONE**   | ***       |         |           |
 P196   |                          | GND             |           | LVTTL*      |          | 12*      | SLOW*| NONE**   | ***       |         |           |
 P197   |                          | VCCO            |           | LVTTL*      |          | 12*      | SLOW*| NONE**   | ***       |         |           |
 P198   |                          | VCCINT          |           | LVTTL*      |          | 12*      | SLOW*| NONE**   | ***       | 2.5     |           |
 P199   |                          |                 | UNUSED    | LVTTL*      | 1        | 12*      | SLOW*| NONE**   | ***       |         |           |
 P200   |                          |                 | UNUSED    | LVTTL*      | 1        | 12*      | SLOW*| NONE**   | ***       |         |           |
 P201   |                          |                 | UNUSED    | LVTTL*      | 1        | 12*      | SLOW*| NONE**   | ***       |         |           |
 P202   |                          |                 | UNUSED    | LVTTL*      | 1        | 12*      | SLOW*| NONE**   | ***       |         |           |
 P203   |                          |                 | UNUSED    | LVTTL*      | 1        | 12*      | SLOW*| NONE**   | ***       |         |           |
 P204   |                          | GND             |           | LVTTL*      |          | 12*      | SLOW*| NONE**   | ***       |         |           |
 P205   |                          | VREF            |           | LVTTL*      | 1        | 12*      | SLOW*| NONE**   | ***       |         |           |
 P206   |                          |                 | UNUSED    | LVTTL*      | 1        | 12*      | SLOW*| NONE**   | ***       |         |           |
 P207   |                          |                 | UNUSED    | LVTTL*      | 1        | 12*      | SLOW*| NONE**   | ***       |         |           |
 P208   |                          |                 | UNUSED    | LVTTL*      | 1        | 12*      | SLOW*| NONE**   | ***       |         |           |
 P209   |                          |                 | UNUSED    | LVTTL*      | 1        | 12*      | SLOW*| NONE**   | ***       |         |           |
 P210   |                          |                 | UNUSED    | LVTTL*      | 1        | 12*      | SLOW*| NONE**   | ***       |         |           |
 P211   |                          | GND             |           | LVTTL*      |          | 12*      | SLOW*| NONE**   | ***       |         |           |
 P212   |                          | VCCO            |           | LVTTL*      |          | 12*      | SLOW*| NONE**   | ***       |         |           |
 P213   |                          |                 | UNUSED    | LVTTL*      | 0        | 12*      | SLOW*| NONE**   | ***       |         |           |
 P214   |                          | VCCINT          |           | LVTTL*      |          | 12*      | SLOW*| NONE**   | ***       | 2.5     |           |
 P215   |                          |                 | UNUSED    | LVTTL*      | 0        | 12*      | SLOW*| NONE**   | ***       |         |           |
 P216   |                          |                 | UNUSED    | LVTTL*      | 0        | 12*      | SLOW*| NONE**   | ***       |         |           |
 P217   |                          |                 | UNUSED    | LVTTL*      | 0        | 12*      | SLOW*| NONE**   | ***       |         |           |
 P218   |                          | VREF            |           | LVTTL*      | 0        | 12*      | SLOW*| NONE**   | ***       |         |           |
 P219   |                          | GND             |           | LVTTL*      |          | 12*      | SLOW*| NONE**   | ***       |         |           |
 P220   |                          |                 | UNUSED    | LVTTL*      | 0        | 12*      | SLOW*| NONE**   | ***       |         |           |
 P221   |                          |                 | UNUSED    | LVTTL*      | 0        | 12*      | SLOW*| NONE**   | ***       |         |           |
 P222   |                          |                 | UNUSED    | LVTTL*      | 0        | 12*      | SLOW*| NONE**   | ***       |         |           |
 P223   |                          |                 | UNUSED    | LVTTL*      | 0        | 12*      | SLOW*| NONE**   | ***       |         |           |
 P224   |                          |                 | UNUSED    | LVTTL*      | 0        | 12*      | SLOW*| NONE**   | ***       |         |           |
 P225   |                          | VCCINT          |           | LVTTL*      |          | 12*      | SLOW*| NONE**   | ***       | 2.5     |           |
 P226   |                          | VCCO            |           | LVTTL*      |          | 12*      | SLOW*| NONE**   | ***       |         |           |
 P227   |                          | GND             |           | LVTTL*      |          | 12*      | SLOW*| NONE**   | ***       |         |           |
 P228   |                          |                 | UNUSED    | LVTTL*      | 0        | 12*      | SLOW*| NONE**   | ***       |         |           |
 P229   |                          |                 | UNUSED    | LVTTL*      | 0        | 12*      | SLOW*| NONE**   | ***       |         |           |
 P230   |                          |                 | UNUSED    | LVTTL*      | 0        | 12*      | SLOW*| NONE**   | ***       |         |           |
 P231   |                          |                 | UNUSED    | LVTTL*      | 0        | 12*      | SLOW*| NONE**   | ***       |         |           |
 P232   |                          | VREF            |           | LVTTL*      | 0        | 12*      | SLOW*| NONE**   | ***       |         |           |
 P233   |                          | GND             |           | LVTTL*      |          | 12*      | SLOW*| NONE**   | ***       |         |           |
 P234   | memwr                    |                 | OUTPUT    | LVTTL       | 0        | 12       | SLOW | NONE**   | ***       |         |           |
 P235   |                          |                 | UNUSED    | LVTTL*      | 0        | 12*      | SLOW*| NONE**   | ***       |         |           |
 P236   |                          |                 | UNUSED    | LVTTL*      | 0        | 12*      | SLOW*| NONE**   | ***       |         |           |
 P237   |                          |                 | UNUSED    | LVTTL*      | 0        | 12*      | SLOW*| NONE**   | ***       |         |           |
 P238   |                          |                 | UNUSED    | LVTTL*      | 0        | 12*      | SLOW*| NONE**   | ***       |         |           |
 P239   |                          | TCK             |           | LVTTL*      |          | 12*      | SLOW*| NONE**   | ***       |         |           |
 P240   |                          | VCCO            |           | LVTTL*      |          | 12*      | SLOW*| NONE**   | ***       |         |           |
--------|--------------------------|-----------------|-----------|-------------|----------|----------|------|----------|-----------|---------|-----------|

* Default value.
** This default Pullup/Pulldown value can be overridden in Bitgen.
*** The default IOB Delay is determined by how the IOB is used.


#
# To preserve the pinout above for future design iterations,
# simply invoke PIN2UCF from the command line or issue this command in the GUI.
# For Foundation ISE/Project Navigator - Run the process "Implement Design" -> "Place-and-Route" -> "Back-annotate Pin Locations"
# For Design Manager - In the Design menu select "Lock Pins...
# The location constraints above will be written into your specified UCF file. (The constraints
# listed below are in PCF format and cannot be directly used in the UCF file).
#
COMP "clk" LOCATE = SITE "P89" ; 
COMP "din<0>" LOCATE = SITE "P28" ; 
COMP "din<10>" LOCATE = SITE "P171" ; 
COMP "din<11>" LOCATE = SITE "P170" ; 
COMP "din<12>" LOCATE = SITE "P168" ; 
COMP "din<13>" LOCATE = SITE "P163" ; 
COMP "din<14>" LOCATE = SITE "P161" ; 
COMP "din<15>" LOCATE = SITE "P175" ; 
COMP "din<1>" LOCATE = SITE "P39" ; 
COMP "din<2>" LOCATE = SITE "P42" ; 
COMP "din<3>" LOCATE = SITE "P140" ; 
COMP "din<4>" LOCATE = SITE "P145" ; 
COMP "din<5>" LOCATE = SITE "P127" ; 
COMP "din<6>" LOCATE = SITE "P126" ; 
COMP "din<7>" LOCATE = SITE "P128" ; 
COMP "din<8>" LOCATE = SITE "P118" ; 
COMP "din<9>" LOCATE = SITE "P184" ; 
COMP "dout<0>" LOCATE = SITE "P35" ; 
COMP "dout<10>" LOCATE = SITE "P24" ; 
COMP "dout<11>" LOCATE = SITE "P23" ; 
COMP "dout<12>" LOCATE = SITE "P64" ; 
COMP "dout<13>" LOCATE = SITE "P56" ; 
COMP "dout<14>" LOCATE = SITE "P55" ; 
COMP "dout<15>" LOCATE = SITE "P63" ; 
COMP "dout<1>" LOCATE = SITE "P13" ; 
COMP "dout<2>" LOCATE = SITE "P26" ; 
COMP "dout<3>" LOCATE = SITE "P18" ; 
COMP "dout<4>" LOCATE = SITE "P12" ; 
COMP "dout<5>" LOCATE = SITE "P17" ; 
COMP "dout<6>" LOCATE = SITE "P11" ; 
COMP "dout<7>" LOCATE = SITE "P21" ; 
COMP "dout<8>" LOCATE = SITE "P20" ; 
COMP "dout<9>" LOCATE = SITE "P19" ; 
COMP "finish" LOCATE = SITE "P71" ; 
COMP "memrd" LOCATE = SITE "P31" ; 
COMP "memwr" LOCATE = SITE "P234" ; 
COMP "rdaddr<0>" LOCATE = SITE "P173" ; 
COMP "rdaddr<10>" LOCATE = SITE "P169" ; 
COMP "rdaddr<11>" LOCATE = SITE "P162" ; 
COMP "rdaddr<12>" LOCATE = SITE "P132" ; 
COMP "rdaddr<13>" LOCATE = SITE "P153" ; 
COMP "rdaddr<14>" LOCATE = SITE "P123" ; 
COMP "rdaddr<15>" LOCATE = SITE "P142" ; 
COMP "rdaddr<16>" LOCATE = SITE "P133" ; 
COMP "rdaddr<17>" LOCATE = SITE "P138" ; 
COMP "rdaddr<1>" LOCATE = SITE "P33" ; 
COMP "rdaddr<2>" LOCATE = SITE "P167" ; 
COMP "rdaddr<3>" LOCATE = SITE "P160" ; 
COMP "rdaddr<4>" LOCATE = SITE "P156" ; 
COMP "rdaddr<5>" LOCATE = SITE "P152" ; 
COMP "rdaddr<6>" LOCATE = SITE "P146" ; 
COMP "rdaddr<7>" LOCATE = SITE "P159" ; 
COMP "rdaddr<8>" LOCATE = SITE "P177" ; 
COMP "rdaddr<9>" LOCATE = SITE "P147" ; 
COMP "rddone" LOCATE = SITE "P25" ; 
COMP "reset" LOCATE = SITE "P68" ; 
COMP "resetl" LOCATE = SITE "P82" ; 
COMP "state1" LOCATE = SITE "P81" ; 
COMP "state2" LOCATE = SITE "P41" ; 
COMP "state3" LOCATE = SITE "P27" ; 
COMP "state4" LOCATE = SITE "P36" ; 
COMP "wraddr<0>" LOCATE = SITE "P134" ; 
COMP "wraddr<10>" LOCATE = SITE "P157" ; 
COMP "wraddr<11>" LOCATE = SITE "P139" ; 
COMP "wraddr<12>" LOCATE = SITE "P155" ; 
COMP "wraddr<13>" LOCATE = SITE "P154" ; 
COMP "wraddr<14>" LOCATE = SITE "P125" ; 
COMP "wraddr<15>" LOCATE = SITE "P149" ; 
COMP "wraddr<16>" LOCATE = SITE "P176" ; 
COMP "wraddr<17>" LOCATE = SITE "P174" ; 
COMP "wraddr<1>" LOCATE = SITE "P40" ; 
COMP "wraddr<2>" LOCATE = SITE "P141" ; 
COMP "wraddr<3>" LOCATE = SITE "P131" ; 
COMP "wraddr<4>" LOCATE = SITE "P38" ; 
COMP "wraddr<5>" LOCATE = SITE "P124" ; 
COMP "wraddr<6>" LOCATE = SITE "P144" ; 
COMP "wraddr<7>" LOCATE = SITE "P130" ; 
COMP "wraddr<8>" LOCATE = SITE "P185" ; 
COMP "wraddr<9>" LOCATE = SITE "P178" ; 
COMP "wrdone" LOCATE = SITE "P34" ; 
#
